Circuit: * C:\Users\lugfe\Documents\GitHub\ASSD\TP1\filtros\Simulacion\filtro montecarlo.asc

Early termination of direct N-R iteration.
Direct Newton iteration failed to find .op point.  (Use ".option noopiter" to skip.)
Starting Gmin stepping
Gmin = 10
vernier = 0.5
vernier = 0.25
vernier = 0.125
Gmin = 5.5165
vernier = 0.0625
vernier = 0.03125
vernier = 0.015625
vernier = 0.0078125
Gmin = 5.48432
vernier = 0.00390625
vernier = 0.00195313
vernier = 0.000976563
vernier = 0.000488281
Gmin = 0
Gmin stepping failed

Starting source stepping with srcstepmethod=0
Source Step = 3.0303%
Source Step = 33.3333%
Source Step = 63.6364%
Source Step = 93.9394%
Source stepping succeeded in finding the operating point.

.step run=1
.step run=2
.step run=3
.step run=4
.step run=5
.step run=6
.step run=7
.step run=8
.step run=9
.step run=10
.step run=11
.step run=12
.step run=13
.step run=14
.step run=15
.step run=16
.step run=17
.step run=18
.step run=19
.step run=20

Date: Fri Mar 29 20:29:52 2019
Total elapsed time: 326.029 seconds.

tnom = 27
temp = 27
method = trap
totiter = 1674
traniter = 0
tranpoints = 0
accept = 0
rejected = 0
matrix size = 284
fillins = 6945
solver = Normal
Matrix Compiler1:  127297 opcodes
Matrix Compiler2: 145.65 KB object code size  68.9/38.7/[21.1]

