Circuit: * C:\Users\Manuel Mollon\Dropbox\ASSD\TP1\S&H.asc

Limiting rise time of source v4 to 3.75e-005
Limiting fall time of source v4 to 3.75e-005
Direct Newton iteration failed to find .op point.  (Use ".option noopiter" to skip.)
Starting Gmin stepping
Gmin = 10
Gmin = 1.07374
Gmin = 0.115292
Gmin = 0.0123794
Gmin = 0.00132923
Gmin = 0.000142725
Gmin = 1.5325e-005
Gmin = 1.6455e-006
Gmin = 1.76685e-007
Gmin = 1.89714e-008
Gmin = 2.03704e-009
Gmin = 2.18725e-010
Gmin = 2.34854e-011
Gmin = 2.52173e-012
Gmin = 2.70769e-013
Gmin = 0
Gmin stepping succeeded in finding the operating point.

Heightened Def Con from 0.00226682 +++++++++++++++++++++++to 0.00226682
Heightened Def Con from 0.00226682 +++++++++++++++++to 0.00226682
Heightened Def Con from 0.00226682 +++++++++++++++to 0.00226682
Heightened Def Con from 0.00226682 ++++++++++++++to 0.00226682
Heightened Def Con from 0.00301692 +++++++++++++++++++++++to 0.00301692
Heightened Def Con from 0.00301692 ++++++++++++++to 0.00301692
Heightened Def Con from 0.00301692 +++++++++++++to 0.00301693

Date: Mon Mar 25 20:30:11 2019
Total elapsed time: 0.813 seconds.

tnom = 27
temp = 27
method = modified trap
totiter = 25028
traniter = 24622
tranpoints = 4165
accept = 2535
rejected = 1756
matrix size = 84
fillins = 112
solver = Alternate
Matrix Compiler1: 14.90 KB object code size  4.9/2.8/[2.1]
Matrix Compiler2: 10.43 KB object code size  2.1/2.3/[1.5]

