Circuit: * C:\Users\lugfe\Documents\GitHub\ASSD\TP1\filtros\Draft1.asc

WARNING: Less than two connections to node +VCC.  This node is used by V2.
WARNING: Less than two connections to node -VCC.  This node is used by V3.
Ignoring empty pin current: Ix(u1:1)
Ignoring empty pin current: Ix(u1:2)

Date: Fri Mar 22 11:39:18 2019
Total elapsed time: 0.054 seconds.

tnom = 27
temp = 27
method = trap
totiter = 0
traniter = 0
tranpoints = 0
accept = 0
rejected = 0
matrix size = 10
fillins = 3
solver = Normal

